# generated using pymatgen
data_Po15O
_symmetry_space_group_name_H-M   'P 1'
_cell_length_a   14.87762000
_cell_length_b   14.87762000
_cell_length_c   20.58029771
_cell_angle_alpha   90.00000000
_cell_angle_beta   90.00000000
_cell_angle_gamma   90.00000000
_symmetry_Int_Tables_number   1
_chemical_formula_structural   Po15O
_chemical_formula_sum   'Po60 O4'
_cell_volume   4555.31670798
_cell_formula_units_Z   4
loop_
 _symmetry_equiv_pos_site_id
 _symmetry_equiv_pos_as_xyz
  1  'x, y, z'
loop_
 _atom_site_type_symbol
 _atom_site_label
 _atom_site_symmetry_multiplicity
 _atom_site_fract_x
 _atom_site_fract_y
 _atom_site_fract_z
 _atom_site_occupancy
  O  O0  1  0.00000000  0.00000000  0.36442622  1
  Po  Po1  1  0.25000000  0.37508000  0.63557378  1
  Po  Po2  1  0.25000000  0.12492000  0.63557378  1
  Po  Po3  1  0.25000000  0.37508000  0.45473163  1
  Po  Po4  1  0.25000000  0.12492000  0.45473163  1
  Po  Po5  1  0.37508000  0.25000000  0.63557378  1
  Po  Po6  1  0.37508000  0.25000000  0.45473163  1
  Po  Po7  1  0.12492000  0.25000000  0.63557378  1
  Po  Po8  1  0.12492000  0.25000000  0.45473163  1
  Po  Po9  1  0.37508000  0.37508000  0.54515271  1
  Po  Po10  1  0.12492000  0.37508000  0.54515271  1
  Po  Po11  1  0.37508000  0.12492000  0.54515271  1
  Po  Po12  1  0.12492000  0.12492000  0.54515271  1
  Po  Po13  1  0.00000000  0.25000000  0.54515271  1
  Po  Po14  1  0.25000000  0.00000000  0.54515271  1
  Po  Po15  1  0.25000000  0.25000000  0.36442622  1
  O  O16  1  0.00000000  0.50000000  0.36442622  1
  Po  Po17  1  0.25000000  0.87508000  0.63557378  1
  Po  Po18  1  0.25000000  0.62492000  0.63557378  1
  Po  Po19  1  0.25000000  0.87508000  0.45473163  1
  Po  Po20  1  0.25000000  0.62492000  0.45473163  1
  Po  Po21  1  0.37508000  0.75000000  0.63557378  1
  Po  Po22  1  0.37508000  0.75000000  0.45473163  1
  Po  Po23  1  0.12492000  0.75000000  0.63557378  1
  Po  Po24  1  0.12492000  0.75000000  0.45473163  1
  Po  Po25  1  0.37508000  0.87508000  0.54515271  1
  Po  Po26  1  0.12492000  0.87508000  0.54515271  1
  Po  Po27  1  0.37508000  0.62492000  0.54515271  1
  Po  Po28  1  0.12492000  0.62492000  0.54515271  1
  Po  Po29  1  0.00000000  0.75000000  0.54515271  1
  Po  Po30  1  0.25000000  0.50000000  0.54515271  1
  Po  Po31  1  0.25000000  0.75000000  0.36442622  1
  O  O32  1  0.50000000  0.00000000  0.36442622  1
  Po  Po33  1  0.75000000  0.37508000  0.63557378  1
  Po  Po34  1  0.75000000  0.12492000  0.63557378  1
  Po  Po35  1  0.75000000  0.37508000  0.45473163  1
  Po  Po36  1  0.75000000  0.12492000  0.45473163  1
  Po  Po37  1  0.87508000  0.25000000  0.63557378  1
  Po  Po38  1  0.87508000  0.25000000  0.45473163  1
  Po  Po39  1  0.62492000  0.25000000  0.63557378  1
  Po  Po40  1  0.62492000  0.25000000  0.45473163  1
  Po  Po41  1  0.87508000  0.37508000  0.54515271  1
  Po  Po42  1  0.62492000  0.37508000  0.54515271  1
  Po  Po43  1  0.87508000  0.12492000  0.54515271  1
  Po  Po44  1  0.62492000  0.12492000  0.54515271  1
  Po  Po45  1  0.50000000  0.25000000  0.54515271  1
  Po  Po46  1  0.75000000  0.00000000  0.54515271  1
  Po  Po47  1  0.75000000  0.25000000  0.36442622  1
  O  O48  1  0.50000000  0.50000000  0.36442622  1
  Po  Po49  1  0.75000000  0.87508000  0.63557378  1
  Po  Po50  1  0.75000000  0.62492000  0.63557378  1
  Po  Po51  1  0.75000000  0.87508000  0.45473163  1
  Po  Po52  1  0.75000000  0.62492000  0.45473163  1
  Po  Po53  1  0.87508000  0.75000000  0.63557378  1
  Po  Po54  1  0.87508000  0.75000000  0.45473163  1
  Po  Po55  1  0.62492000  0.75000000  0.63557378  1
  Po  Po56  1  0.62492000  0.75000000  0.45473163  1
  Po  Po57  1  0.87508000  0.87508000  0.54515271  1
  Po  Po58  1  0.62492000  0.87508000  0.54515271  1
  Po  Po59  1  0.87508000  0.62492000  0.54515271  1
  Po  Po60  1  0.62492000  0.62492000  0.54515271  1
  Po  Po61  1  0.50000000  0.75000000  0.54515271  1
  Po  Po62  1  0.75000000  0.50000000  0.54515271  1
  Po  Po63  1  0.75000000  0.75000000  0.36442622  1
