data_image0
_chemical_formula_structural       La2Ti2N2O4
_chemical_formula_sum              "La2 Ti2 N2 O4"
_cell_length_a       5.61988
_cell_length_b       5.61988
_cell_length_c       5.61988
_cell_angle_alpha    120.765
_cell_angle_beta     120.041
_cell_angle_gamma    89.305

_space_group_name_H-M_alt    "P 1"
_space_group_IT_number       1

loop_
  _space_group_symop_operation_xyz
  'x, y, z'

loop_
  _atom_site_type_symbol
  _atom_site_label
  _atom_site_symmetry_multiplicity
  _atom_site_fract_x
  _atom_site_fract_y
  _atom_site_fract_z
  _atom_site_occupancy
  La  La1       1.0  0.24965  0.25000  0.99965  1.0000
  La  La2       1.0  0.75035  0.75000  0.00035  1.0000
  Ti  Ti1       1.0  0.50000  0.00000  0.50000  1.0000
  Ti  Ti2       1.0  0.00000  0.50000  0.50000  1.0000
  N   N1        1.0  0.68229  0.25000  0.43229  1.0000
  N   N2        1.0  0.31771  0.75000  0.56771  1.0000
  O   O1        1.0  0.78510  0.78510  0.50000  1.0000
  O   O2        1.0  0.21490  0.71490  0.00000  1.0000
  O   O3        1.0  0.78510  0.28510  0.00000  1.0000
  O   O4        1.0  0.21490  0.21490  0.50000  1.0000
