data_image0
_chemical_formula_structural       Ta6N10
_chemical_formula_sum              "Ta6 N10"
_cell_length_a       5.52078
_cell_length_b       5.52078
_cell_length_c       10.3571
_cell_angle_alpha    90
_cell_angle_beta     90
_cell_angle_gamma    138.579

_space_group_name_H-M_alt    "P 1"
_space_group_IT_number       1

loop_
  _space_group_symop_operation_xyz
  'x, y, z'

loop_
  _atom_site_type_symbol
  _atom_site_label
  _atom_site_symmetry_multiplicity
  _atom_site_fract_x
  _atom_site_fract_y
  _atom_site_fract_z
  _atom_site_occupancy
  Ta  Ta1       1.0  0.19695  0.80305  0.75000  1.0000
  Ta  Ta2       1.0  0.86637  0.13363  0.94057  1.0000
  Ta  Ta3       1.0  0.13363  0.86637  0.05943  1.0000
  Ta  Ta4       1.0  0.13363  0.86637  0.44057  1.0000
  Ta  Ta5       1.0  0.80305  0.19695  0.25000  1.0000
  Ta  Ta6       1.0  0.86637  0.13363  0.55943  1.0000
  N   N1        1.0  0.04670  0.95330  0.88075  1.0000
  N   N2        1.0  0.69173  0.30827  0.07407  1.0000
  N   N3        1.0  0.30827  0.69173  0.92593  1.0000
  N   N4        1.0  0.69173  0.30827  0.42593  1.0000
  N   N5        1.0  0.23744  0.76256  0.25000  1.0000
  N   N6        1.0  0.30827  0.69173  0.57407  1.0000
  N   N7        1.0  0.04670  0.95330  0.61925  1.0000
  N   N8        1.0  0.95330  0.04670  0.38075  1.0000
  N   N9        1.0  0.76256  0.23744  0.75000  1.0000
  N   N10       1.0  0.95330  0.04670  0.11925  1.0000
